
Spectre (R) Circuit Simulator
Version 17.1.0.627.isr15 64bit -- 9 May 2019
Copyright (C) 1989-2018 Cadence Design Systems, Inc. All rights reserved worldwide. Cadence and Spectre are registered trademarks of Cadence Design Systems, Inc. All others are the property of their respective holders.

Includes RSA BSAFE(R) Cryptographic or Security Protocol Software from RSA Security, Inc.

User: cs199-and   Host: eda-1.EECS.Berkeley.EDU   HostID: 2080F786   PID: 30242
Memory  available: 356.2905 MB  physical: 50.6362 GB
Linux   : CentOS Linux release 7.7.1908 (Core)
CPU Type: Intel(R) Xeon(R) CPU           X5550  @ 2.67GHz
        Socket: Processors [Frequency] (Hyperthreaded Processor)
        0:       0 [1600.0] (  8 ),  1 [1600.0] (  9 ),  2 [1600.0] ( 10 )
                 3 [1600.0] ( 11 )
        1:       4 [1600.0] ( 12 ),  5 [1600.0] ( 13 ),  6 [1600.0] ( 14 )
                 7 [1733.0] ( 15 )
        
System load averages (1min, 5min, 15min) : 10.5 %, 11.4 %, 11.9 %
Hyperthreading is enabled


Simulating `q1a.scs' on eda-1.EECS.Berkeley.EDU at 12:04:51 PM, Tue Oct 8, 2019 (process id: 30242).
Current working directory: /home/cc/cs199/fa13/class/cs199-and/ee240c/hw/03
Command line:
    /share/instsww/cadence/MMSIM171/tools/bin/spectre -64 q1a.scs

LoadingReading file:  /home/cc/cs199/fa13/class/cs199-and/ee240c/hw/03/q1a.scs
Reading link:  /share/instsww/cadence/MMSIM171
Reading file:  /share/instsww/cadence/SPECTRE.17.10.627/tools.lnx86/spectre/etc/configs/mapsubckt.cfg
Reading file:  /share/instsww/cadence/SPECTRE.17.10.627/tools.lnx86/spectre/etc/configs/spectre.cfg
Reading file:  /share/instsww/cadence/GPDK_PKG/gpdk045_v_5_0/models/spectre/gpdk045_mos.scs
Time for NDB Parsing: CPU = 441.472 ms, elapsed = 622.19 ms.
Time accumulated: CPU = 490.495 ms, elapsed = 622.203 ms.
Peak resident memory used = 54.7 Mbytes.

Reading link:  /share/instsww/cadence/MMSIM171/tools.lnx86/spectre/etc/ahdl/discipline.h
Reading file:  /share/instsww/cadence/SPECTRE.17.10.627/tools.lnx86/spectre/etc/ahdl/disciplines.vams
Reading link:  /share/instsww/cadence/MMSIM171/tools.lnx86/spectre/etc/ahdl/constants.h
Reading file:  /share/instsww/cadence/SPECTRE.17.10.627/tools.lnx86/spectre/etc/ahdl/constants.vams
Compiling ahdlcmi module library for bsource_2b273e.
Finished compilation in 1.44 s (elapsed) for bsource_2b273e.
Installed compiled interface for bsource_2b273e.
Time for Elaboration: CPU = 227.896 ms, elapsed = 2.0424 s.
Time accumulated: CPU = 718.606 ms, elapsed = 2.66481 s.
Peak resident memory used = 70.4 Mbytes.


Time for EDB Visiting: CPU = 1.442 ms, elapsed = 2.76208 ms.
Time accumulated: CPU = 720.277 ms, elapsed = 2.6678 s.
Peak resident memory used = 71 Mbytes.


Global user options:

Scoped user options:

Circuit inventory:
              nodes 5
              bsim4 2     
     bsource_2b273e 2     
          capacitor 1     
            vsource 2     

Analysis and control statement inventory:

Output statements:
             .probe 0     
           .measure 0     
               save 1     

Time for parsing: CPU = 3.07 ms, elapsed = 18.6028 ms.
Time accumulated: CPU = 723.496 ms, elapsed = 2.68655 s.
Peak resident memory used = 72.3 Mbytes.

~~~~~~~~~~~~~~~~~~~~~~
Pre-Simulation Summary
~~~~~~~~~~~~~~~~~~~~~~
~~~~~~~~~~~~~~~~~~~~~~

Warning from spectre.
    WARNING (SPECTRE-135): No analysis specified.


Aggregate audit (12:04:54 PM, Tue Oct 8, 2019):
Time used: CPU = 725 ms, elapsed = 2.69 s, util. = 27%.
Time spent in licensing: elapsed = 77.8 ms.
Peak memory used = 72.5 Mbytes.
Simulation started at: 12:04:51 PM, Tue Oct 8, 2019, ended at: 12:04:54 PM, Tue Oct 8, 2019, with elapsed time (wall clock): 2.69
        s.
spectre completes with 0 errors, 1 warning, and 0 notices.
 = 18.6028 ms.
Time accumulated: CPU = 723.496 ms, elapsed = 2.68655 s.
Peak resident memory used = 72.3 Mbytes.

~~~~~~~~~~~~~~~~~~~~~~
Pre-Simulation Summary
~~~~~~~~~~~~~~~~~~~~~~
~~~~~~~~~~~~~~~~~~~~~~

Warning from spectre.
    WARNING (SPECTRE-135): No analysis specified.


Aggregate audit (12:04:54 PM, Tue Oct 8, 2019):
Time used: CPU = 725 ms, elapsed = 2.69 s, util. = 27%.
Time spent in licensing: elapsed = 77.8 ms.
Peak memory used = 72.5 Mbytes.
Simulation started at: 12:04:51 PM, Tue Oct 8, 2019, ended at: 12:04:54 PM, Tue Oct 8, 2019, with elapsed time (wall clock): 2.69 s.
spectre completes with 0 errors, 1 warning, and 0 notices.
