
Spectre (R) Circuit Simulator
Version 17.1.0.627.isr15 64bit -- 9 May 2019
Copyright (C) 1989-2018 Cadence Design Systems, Inc. All rights reserved worldwide. Cadence and Spectre are registered trademarks of Cadence Design Systems, Inc. All others are the property of their respective holders.

Includes RSA BSAFE(R) Cryptographic or Security Protocol Software from RSA Security, Inc.

User: cs199-and   Host: eda-1.EECS.Berkeley.EDU   HostID: 2080F786   PID: 28541
Memory  available: 522.3505 MB  physical: 50.6362 GB
Linux   : CentOS Linux release 7.7.1908 (Core)
CPU Type: Intel(R) Xeon(R) CPU           X5550  @ 2.67GHz
        Socket: Processors [Frequency] (Hyperthreaded Processor)
        0:       0 [1600.0] (  8 ),  1 [2000.0] (  9 ),  2 [1600.0] ( 10 )
                 3 [1600.0] ( 11 )
        1:       4 [1600.0] ( 12 ),  5 [1733.0] ( 13 ),  6 [1600.0] ( 14 )
                 7 [1600.0] ( 15 )
        
System load averages (1min, 5min, 15min) : 12.9 %, 11.4 %, 10.6 %
Hyperthreading is enabled


Simulating `q1b.scs' on eda-1.EECS.Berkeley.EDU at 12:45:43 PM, Tue Oct 8, 2019 (process id: 28541).
Current working directory: /home/cc/cs199/fa13/class/cs199-and/ee240c/hw/03
Command line:
    /share/instsww/cadence/MMSIM171/tools/bin/spectre -64 q1b.scs

Loading /share/instsww/cadence/MMSIM171/tools.lnx86/cmi/lib/64bit/5.0/libinfineon_sh.so ...
Loading /share/instsww/cadence/MMSIM171/tools.lnx86/cmi/lib/64bit/5.0/libphilips_o_sh.so ...
Loading /share/instsww/cadence/MMSIM171/tools.lnx86/cmi/lib/64bit/5.0/libphilips_sh.so ...
Loading /share/instsww/cadence/MMSIM171/tools.lnx86/cmi/lib/64bit/5.0/libsparam_sh.so ...
Loading /share/instsww/cadence/MMSIM171/tools.lnx86/cmi/lib/64bit/5.0/libstmodels_sh.so ...
Reading file:  /home/cc/cs199/fa13/class/cs199-and/ee240c/hw/03/q1b.scs
Reading link:  /share/instsww/cadence/MMSIM171
Reading file:  /share/instsww/cadence/SPECTRE.17.10.627/tools.lnx86/spectre/etc/configs/mapsubckt.cfg
Reading file:  /share/instsww/cadence/SPECTRE.17.10.627/tools.lnx86/spectre/etc/configs/spectre.cfg
Reading file:  /share/instsww/cadence/GPDK_PKG/gpdk045_v_5_0/models/spectre/gpdk045_mos.scs
Time for NDB Parsing: CPU = 438.44 ms, elapsed = 587.685 ms.
Time accumulated: CPU = 505.263 ms, elapsed = 587.694 ms.
Peak resident memory used = 54.7 Mbytes.

Reading link:  /share/instsww/cadence/MMSIM171/tools.lnx86/spectre/etc/ahdl/discipline.h
Reading file:  /share/instsww/cadence/SPECTRE.17.10.627/tools.lnx86/spectre/etc/ahdl/disciplines.vams
Reading link:  /share/instsww/cadence/MMSIM171/tools.lnx86/spectre/etc/ahdl/constants.h
Reading file:  /share/instsww/cadence/SPECTRE.17.10.627/tools.lnx86/spectre/etc/ahdl/constants.vams
Existing shared object for module bsource_2b273e is up to date.
Installed compiled interface for bsource_2b273e.
Time for Elaboration: CPU = 31.788 ms, elapsed = 45.7249 ms.
Time accumulated: CPU = 537.263 ms, elapsed = 633.648 ms.
Peak resident memory used = 63.5 Mbytes.


Time for EDB Visiting: CPU = 1.281 ms, elapsed = 1.28579 ms.
Time accumulated: CPU = 538.755 ms, elapsed = 635.163 ms.
Peak resident memory used = 64.3 Mbytes.


Global user options:

Scoped user options:

Circuit inventory:
              nodes 5
              bsim4 2     
     bsource_2b273e 2     
          capacitor 1     
            vsource 2     

Analysis and control statement inventory:
                 dc 1     

Output statements:
             .probe 0     
           .measure 0     
               save 1     

Time for parsing: CPU = 3.115 ms, elapsed = 7.45893 ms.
Time accumulated: CPU = 542.047 ms, elapsed = 642.826 ms.
Peak resident memory used = 65.8 Mbytes.

~~~~~~~~~~~~~~~~~~~~~~
Pre-Simulation Summary
~~~~~~~~~~~~~~~~~~~~~~
~~~~~~~~~~~~~~~~~~~~~~

***********************************
DC Analysis `dc': VIN_DC = (0 -> 1)
***********************************

Notice from spectre during DC analysis `dc'.
    No outputs were found. Loosening output filter criterion to `allpub'.


Opening the PSF file q1b.raw/dc.dc ...
Important parameter values:
    reltol = 1e-03
    abstol(V) = 1 uV
    abstol(I) = 1 pA
    temp = 27 C
    tnom = 27 C
    tempeffects = all
    gmindc = 1 pS
............9............8............7............6............5............4............3............2............1............0

Maximum value achieved for any signal of each quantity: 
V: V(mn.n1) = 1 V
I: I(vin:p) = 8.341 nA
DC simulation time: CPU = 21.376 ms, elapsed = 25.7449 ms.

Notice from spectre at VIN_DC = 1 during DC analysis `dc'.
    The value of parameter 'VIN_DC' has been reset to the original value 0.5.

Total time required for dc analysis `dc': CPU = 21.454 ms, elapsed = 25.826 ms.
Time accumulated: CPU = 569.323 ms, elapsed = 677.724 ms.
Peak resident memory used = 67.5 Mbytes.


Aggregate audit (12:45:43 PM, Tue Oct 8, 2019):
Time used: CPU = 580 ms, elapsed = 690 ms, util. = 84.1%.
Time spent in licensing: elapsed = 77.3 ms, percentage of total = 11.2%.
Peak memory used = 67.9 Mbytes.
Simulation started at: 12:45:43 PM, Tue Oct 8, 2019, ended at: 12:45:43 PM, Tue Oct 8, 2019, with elapsed time (wall clock): 690 ms.
spectre completes with 0 errors, 0 warnings, and 2 notices.
